                                   MODFLOW 6
                U.S. GEOLOGICAL SURVEY MODULAR HYDROLOGIC MODEL
                          GROUNDWATER FLOW MODEL (GWF)
                            VERSION 6.4.2 06/28/2023

   MODFLOW 6 compiled Jun 28 2023 18:41:13 with Intel(R) Fortran Intel(R) 64
   Compiler Classic for applications running on Intel(R) 64, Version 2021.7.0
                             Build 20220726_000000

This software has been approved for release by the U.S. Geological 
Survey (USGS). Although the software has been subjected to rigorous 
review, the USGS reserves the right to update the software as needed 
pursuant to further analysis and review. No warranty, expressed or 
implied, is made by the USGS or the U.S. Government as to the 
functionality of the software and related material nor shall the 
fact of release constitute any such warranty. Furthermore, the 
software is released on condition that neither the USGS nor the U.S. 
Government shall be held liable for any damages resulting from its 
authorized or unauthorized use. Also refer to the USGS Water 
Resources Software User Rights Notice for complete use, copyright, 
and distribution information.


As a work of the United States Government, this USGS product is 
in the public domain within the United States. You can copy, 
modify, distribute, and perform the work, even for commercial 
purposes, all without asking permission. Additionally, USGS 
waives copyright and related rights in the work worldwide 
through CC0 1.0 Universal Public Domain Dedication 
(https://creativecommons.org/publicdomain/zero/1.0/).

The following GNU Lesser General Public License (LGPL) libraries
are used in this USGS product:

    SPARSKIT version 2.0
      ilut, luson, and qsplit 
      (https://www-users.cse.umn.edu/~saad/software/SPARSKIT/)

    RCM - Reverse Cuthill McKee Ordering
      (https://people.math.sc.edu/Burkardt/f_src/rcm/rcm.html)

    BLAS - Basic Linear Algebra Subprograms Level 1
      (https://people.math.sc.edu/Burkardt/f_src/blas1_d/blas1_d.html)

    SPARSEKIT - Sparse Matrix Utility Package
      amux, dperm, dvperm, rperm, and cperm
      (https://people.sc.fsu.edu/~jburkardt/f77_src/sparsekit/sparsekit.html)

The following BSD-3 License libraries are used in this USGS product:

    Modern Fortran DAG Library
      Copyright (c) 2018, Jacob Williams
      All rights reserved.
      (https://github.com/jacobwilliams/daglib)

MODFLOW 6 compiler options: /Isrc\libmf6core.a.p /Isrc /I..\src
/Isrc\libmf6_external.a.p /MTd /nologo /warn:general /warn:truncated_source
/stand:f08 /Zi /traceback /O2 /fpe:0 /heap-arrays:0 /traceback /fpp
/Qdiag-disable:7416 /Qdiag-disable:7025 /Qdiag-disable:5268
/Fdsrc\libmf6core.a.p\Utilities_compilerversion.F90.pdb
/module:src\libmf6core.a.p
/Fosrc/libmf6core.a.p/Utilities_compilerversion.F90.obj /c

System command used to initiate simulation:
C:\Users\noo029\modflow\bin\mf6.exe

MODFLOW was compiled using uniform precision.

Real Variables
  KIND: 8
  TINY (smallest non-zero value):    2.225074-308
  HUGE (largest value):    1.797693+308
  PRECISION: 15
  SIZE IN BITS: 64

Integer Variables
  KIND: 4
  HUGE (largest value): 2147483647
  SIZE IN BITS: 32

Long Integer Variables
  KIND: 8
  HUGE (largest value): 9223372036854775807
  SIZE IN BITS: 64

Logical Variables
  KIND: 4
  SIZE IN BITS: 32
 
 NAMEFILE OPTIONS:
 END NAMEFILE OPTIONS:

 DIS -- STRUCTURED GRID DISCRETIZATION PACKAGE, VERSION 2 : 3/27/2014 - INPUT READ FROM MEMPATH: __INPUT__/GWF_WELL_00/DIS                         


 NPF -- NODE PROPERTY FLOW PACKAGE, VERSION 1, 3/30/2015 INPUT READ FROM MEMPATH: __INPUT__/GWF_WELL_00/NPF                         

 Setting Discretization Options
    Model length unit [0=UND, 1=FEET, 2=METERS, 3=CENTIMETERS] set as 2
 End Setting Discretization Options

 Setting Discretization Dimensions
    NLAY = 1
    NROW = 15
    NCOL = 15
 End Setting Discretization Dimensions

 Setting Discretization Griddata
    DELR set from input file
    DELC set from input file
    TOP set from input file
    BOTM set from input file
 End Setting Discretization Griddata

 Setting NPF Options
    Cell-by-cell flow information will be saved to binary file whenever ICBCFL is not zero.
 End Setting NPF Options

 Setting NPF Griddata
    ICELLTYPE set from input file
    K set from input file
    K33 not provided.  Setting K33 = K.
    K22 not provided.  Setting K22 = K.
 End Setting NPF Griddata


 WEL   -- WEL PACKAGE, VERSION 8, 2/22/2014 INPUT READ FROM UNIT 1008
 # File generated by Flopy version 3.4.1 on 08/06/2024 at 10:46:19.

 PROCESSING WEL OPTIONS
    WEL BOUNDARIES HAVE NAMES IN LAST COLUMN.
    LISTS OF WEL CELLS WILL BE PRINTED.
    WEL FLOWS WILL BE PRINTED TO LISTING FILE.
    FLOWS WILL BE SAVED TO BUDGET FILE SPECIFIED IN OUTPUT CONTROL
 END OF WEL OPTIONS

 PROCESSING WEL DIMENSIONS
    MAXBOUND =       1
 END OF WEL DIMENSIONS

 CHD   -- CHD PACKAGE, VERSION 8, 2/22/2014 INPUT READ FROM UNIT 1009
 # File generated by Flopy version 3.4.1 on 08/06/2024 at 10:46:19.

 PROCESSING CHD OPTIONS
    FLOWS WILL BE SAVED TO BUDGET FILE SPECIFIED IN OUTPUT CONTROL
 END OF CHD OPTIONS

 PROCESSING CHD DIMENSIONS
    MAXBOUND =      15
 END OF CHD DIMENSIONS

 IC -- INITIAL CONDITIONS PACKAGE, VERSION 8, 3/28/2015 INPUT READ FROM UNIT 1006
 # File generated by Flopy version 3.4.1 on 08/06/2024 at 10:46:19.
 PROCESSING GRIDDATA

     INITIAL HEAD =   0.000000    
 END PROCESSING GRIDDATA

 STO -- STORAGE PACKAGE, VERSION 1, 5/19/2014 INPUT READ FROM UNIT 1005


 # File generated by Flopy version 3.4.1 on 08/06/2024 at 10:46:19.
 PROCESSING STORAGE OPTIONS
    CELL-BY-CELL FLOW INFORMATION WILL BE SAVED TO BINARY FILE WHENEVER ICBCFL IS NOT ZERO.
 END OF STORAGE OPTIONS
 PROCESSING GRIDDATA

                 ICONVERT = 0

         SPECIFIC STORAGE =  0.2000000E-05

           SPECIFIC YIELD =  0.2000000    
 END PROCESSING GRIDDATA
    BINARY GRID INFORMATION WILL BE WRITTEN TO:
      UNIT NUMBER: 1013
      FILE NAME: gwf_well_00.dis.grb

 OPENED gwf_well_00.dis.grb
 FILE TYPE:DATA(BINARY)   UNIT 1013   STATUS:REPLACE             
 FORMAT:UNFORMATTED            ACCESS:STREAM              
 ACTION:READWRITE           

      THE LAST TIME STEP WILL BE PRINTED
      THE LAST TIME STEP WILL BE PRINTED
 # File generated by Flopy version 3.4.1 on 08/06/2024 at 10:46:19.

 PROCESSING OC OPTIONS

    BUDGET INFORMATION WILL BE WRITTEN TO:
      UNIT NUMBER: 1014
      FILE NAME: gwf_well_00.cbb

 OPENED gwf_well_00.cbb
 FILE TYPE:DATA(BINARY)   UNIT 1014   STATUS:REPLACE             
 FORMAT:UNFORMATTED            ACCESS:STREAM              
 ACTION:READWRITE           

    HEAD INFORMATION WILL BE WRITTEN TO:
      UNIT NUMBER: 1015
      FILE NAME: gwf_well_00.hds

 OPENED gwf_well_00.hds
 FILE TYPE:DATA(BINARY)   UNIT 1015   STATUS:REPLACE             
 FORMAT:UNFORMATTED            ACCESS:STREAM              
 ACTION:READWRITE           

 END OF OC OPTIONS

start timestep kper="1" kstp="1" mode="normal"


 BEGIN READING OUTPUT CONTROL FOR STRESS PERIOD 1
      ALL TIME STEPS WILL BE SAVED
      ALL TIME STEPS WILL BE SAVED
      THE LAST TIME STEP WILL BE PRINTED

 END READING OUTPUT CONTROL FOR STRESS PERIOD 1


 PROCESSING STORAGE PERIOD DATA
 END PROCESSING STORAGE PERIOD DATA


 STRESS PERIOD 1 IS TRANSIENT

 --------------------------------------------------------------------------------------------
  WEL NO.    LAYER    ROW     COL     STRESS RATE    BOUNDNAME                               
 --------------------------------------------------------------------------------------------
     1         1       8       8    -600.000000      WELL_00                                 
 --------------------------------------------------------------------------------------------


 UBDSV1 SAVING           STO-SS ON UNIT   1014 AT TIME STEP      1, STRESS PERIOD      1
 UBDSV1 SAVING     FLOW-JA-FACE ON UNIT   1014 AT TIME STEP      1, STRESS PERIOD      1
 UBDSV06 SAVING              WEL IN MODEL GWF_WELL_00      PACKAGE GWF_WELL_00     CONNECTED TO MODEL GWF_WELL_00      PACKAGE WEL              ON UNIT   1014 AT TIME STEP      1, STRESS PERIOD      1
 UBDSV06 SAVING              CHD IN MODEL GWF_WELL_00      PACKAGE GWF_WELL_00     CONNECTED TO MODEL GWF_WELL_00      PACKAGE CHD              ON UNIT   1014 AT TIME STEP      1, STRESS PERIOD      1

 HEAD WILL BE SAVED ON UNIT 1015 AT END OF TIME STEP    1, STRESS PERIOD    1

end timestep


start timestep kper="1" kstp="2" mode="normal"

 UBDSV1 SAVING           STO-SS ON UNIT   1014 AT TIME STEP      2, STRESS PERIOD      1
 UBDSV1 SAVING     FLOW-JA-FACE ON UNIT   1014 AT TIME STEP      2, STRESS PERIOD      1
 UBDSV06 SAVING              WEL IN MODEL GWF_WELL_00      PACKAGE GWF_WELL_00     CONNECTED TO MODEL GWF_WELL_00      PACKAGE WEL              ON UNIT   1014 AT TIME STEP      2, STRESS PERIOD      1
 UBDSV06 SAVING              CHD IN MODEL GWF_WELL_00      PACKAGE GWF_WELL_00     CONNECTED TO MODEL GWF_WELL_00      PACKAGE CHD              ON UNIT   1014 AT TIME STEP      2, STRESS PERIOD      1

 HEAD WILL BE SAVED ON UNIT 1015 AT END OF TIME STEP    2, STRESS PERIOD    1

end timestep


start timestep kper="1" kstp="3" mode="normal"

 UBDSV1 SAVING           STO-SS ON UNIT   1014 AT TIME STEP      3, STRESS PERIOD      1
 UBDSV1 SAVING     FLOW-JA-FACE ON UNIT   1014 AT TIME STEP      3, STRESS PERIOD      1
 UBDSV06 SAVING              WEL IN MODEL GWF_WELL_00      PACKAGE GWF_WELL_00     CONNECTED TO MODEL GWF_WELL_00      PACKAGE WEL              ON UNIT   1014 AT TIME STEP      3, STRESS PERIOD      1
 UBDSV06 SAVING              CHD IN MODEL GWF_WELL_00      PACKAGE GWF_WELL_00     CONNECTED TO MODEL GWF_WELL_00      PACKAGE CHD              ON UNIT   1014 AT TIME STEP      3, STRESS PERIOD      1

 HEAD WILL BE SAVED ON UNIT 1015 AT END OF TIME STEP    3, STRESS PERIOD    1

end timestep


start timestep kper="1" kstp="4" mode="normal"

 UBDSV1 SAVING           STO-SS ON UNIT   1014 AT TIME STEP      4, STRESS PERIOD      1
 UBDSV1 SAVING     FLOW-JA-FACE ON UNIT   1014 AT TIME STEP      4, STRESS PERIOD      1
 UBDSV06 SAVING              WEL IN MODEL GWF_WELL_00      PACKAGE GWF_WELL_00     CONNECTED TO MODEL GWF_WELL_00      PACKAGE WEL              ON UNIT   1014 AT TIME STEP      4, STRESS PERIOD      1
 UBDSV06 SAVING              CHD IN MODEL GWF_WELL_00      PACKAGE GWF_WELL_00     CONNECTED TO MODEL GWF_WELL_00      PACKAGE CHD              ON UNIT   1014 AT TIME STEP      4, STRESS PERIOD      1

 HEAD WILL BE SAVED ON UNIT 1015 AT END OF TIME STEP    4, STRESS PERIOD    1

end timestep


start timestep kper="1" kstp="5" mode="normal"

 UBDSV1 SAVING           STO-SS ON UNIT   1014 AT TIME STEP      5, STRESS PERIOD      1
 UBDSV1 SAVING     FLOW-JA-FACE ON UNIT   1014 AT TIME STEP      5, STRESS PERIOD      1
 UBDSV06 SAVING              WEL IN MODEL GWF_WELL_00      PACKAGE GWF_WELL_00     CONNECTED TO MODEL GWF_WELL_00      PACKAGE WEL              ON UNIT   1014 AT TIME STEP      5, STRESS PERIOD      1
 UBDSV06 SAVING              CHD IN MODEL GWF_WELL_00      PACKAGE GWF_WELL_00     CONNECTED TO MODEL GWF_WELL_00      PACKAGE CHD              ON UNIT   1014 AT TIME STEP      5, STRESS PERIOD      1

 HEAD WILL BE SAVED ON UNIT 1015 AT END OF TIME STEP    5, STRESS PERIOD    1

end timestep


start timestep kper="1" kstp="6" mode="normal"

 UBDSV1 SAVING           STO-SS ON UNIT   1014 AT TIME STEP      6, STRESS PERIOD      1
 UBDSV1 SAVING     FLOW-JA-FACE ON UNIT   1014 AT TIME STEP      6, STRESS PERIOD      1
 UBDSV06 SAVING              WEL IN MODEL GWF_WELL_00      PACKAGE GWF_WELL_00     CONNECTED TO MODEL GWF_WELL_00      PACKAGE WEL              ON UNIT   1014 AT TIME STEP      6, STRESS PERIOD      1
 UBDSV06 SAVING              CHD IN MODEL GWF_WELL_00      PACKAGE GWF_WELL_00     CONNECTED TO MODEL GWF_WELL_00      PACKAGE CHD              ON UNIT   1014 AT TIME STEP      6, STRESS PERIOD      1

 HEAD WILL BE SAVED ON UNIT 1015 AT END OF TIME STEP    6, STRESS PERIOD    1

end timestep


start timestep kper="1" kstp="7" mode="normal"

 UBDSV1 SAVING           STO-SS ON UNIT   1014 AT TIME STEP      7, STRESS PERIOD      1
 UBDSV1 SAVING     FLOW-JA-FACE ON UNIT   1014 AT TIME STEP      7, STRESS PERIOD      1
 UBDSV06 SAVING              WEL IN MODEL GWF_WELL_00      PACKAGE GWF_WELL_00     CONNECTED TO MODEL GWF_WELL_00      PACKAGE WEL              ON UNIT   1014 AT TIME STEP      7, STRESS PERIOD      1
 UBDSV06 SAVING              CHD IN MODEL GWF_WELL_00      PACKAGE GWF_WELL_00     CONNECTED TO MODEL GWF_WELL_00      PACKAGE CHD              ON UNIT   1014 AT TIME STEP      7, STRESS PERIOD      1

 HEAD WILL BE SAVED ON UNIT 1015 AT END OF TIME STEP    7, STRESS PERIOD    1

end timestep


start timestep kper="1" kstp="8" mode="normal"

 UBDSV1 SAVING           STO-SS ON UNIT   1014 AT TIME STEP      8, STRESS PERIOD      1
 UBDSV1 SAVING     FLOW-JA-FACE ON UNIT   1014 AT TIME STEP      8, STRESS PERIOD      1
 UBDSV06 SAVING              WEL IN MODEL GWF_WELL_00      PACKAGE GWF_WELL_00     CONNECTED TO MODEL GWF_WELL_00      PACKAGE WEL              ON UNIT   1014 AT TIME STEP      8, STRESS PERIOD      1
 UBDSV06 SAVING              CHD IN MODEL GWF_WELL_00      PACKAGE GWF_WELL_00     CONNECTED TO MODEL GWF_WELL_00      PACKAGE CHD              ON UNIT   1014 AT TIME STEP      8, STRESS PERIOD      1

 HEAD WILL BE SAVED ON UNIT 1015 AT END OF TIME STEP    8, STRESS PERIOD    1

end timestep


start timestep kper="1" kstp="9" mode="normal"

 UBDSV1 SAVING           STO-SS ON UNIT   1014 AT TIME STEP      9, STRESS PERIOD      1
 UBDSV1 SAVING     FLOW-JA-FACE ON UNIT   1014 AT TIME STEP      9, STRESS PERIOD      1
 UBDSV06 SAVING              WEL IN MODEL GWF_WELL_00      PACKAGE GWF_WELL_00     CONNECTED TO MODEL GWF_WELL_00      PACKAGE WEL              ON UNIT   1014 AT TIME STEP      9, STRESS PERIOD      1
 UBDSV06 SAVING              CHD IN MODEL GWF_WELL_00      PACKAGE GWF_WELL_00     CONNECTED TO MODEL GWF_WELL_00      PACKAGE CHD              ON UNIT   1014 AT TIME STEP      9, STRESS PERIOD      1

 HEAD WILL BE SAVED ON UNIT 1015 AT END OF TIME STEP    9, STRESS PERIOD    1

end timestep


start timestep kper="1" kstp="10" mode="normal"

 UBDSV1 SAVING           STO-SS ON UNIT   1014 AT TIME STEP     10, STRESS PERIOD      1
 UBDSV1 SAVING     FLOW-JA-FACE ON UNIT   1014 AT TIME STEP     10, STRESS PERIOD      1
 UBDSV06 SAVING              WEL IN MODEL GWF_WELL_00      PACKAGE GWF_WELL_00     CONNECTED TO MODEL GWF_WELL_00      PACKAGE WEL              ON UNIT   1014 AT TIME STEP     10, STRESS PERIOD      1
 UBDSV06 SAVING              CHD IN MODEL GWF_WELL_00      PACKAGE GWF_WELL_00     CONNECTED TO MODEL GWF_WELL_00      PACKAGE CHD              ON UNIT   1014 AT TIME STEP     10, STRESS PERIOD      1

 HEAD WILL BE SAVED ON UNIT 1015 AT END OF TIME STEP   10, STRESS PERIOD    1

end timestep


start timestep kper="1" kstp="11" mode="normal"

 UBDSV1 SAVING           STO-SS ON UNIT   1014 AT TIME STEP     11, STRESS PERIOD      1
 UBDSV1 SAVING     FLOW-JA-FACE ON UNIT   1014 AT TIME STEP     11, STRESS PERIOD      1
 UBDSV06 SAVING              WEL IN MODEL GWF_WELL_00      PACKAGE GWF_WELL_00     CONNECTED TO MODEL GWF_WELL_00      PACKAGE WEL              ON UNIT   1014 AT TIME STEP     11, STRESS PERIOD      1
 UBDSV06 SAVING              CHD IN MODEL GWF_WELL_00      PACKAGE GWF_WELL_00     CONNECTED TO MODEL GWF_WELL_00      PACKAGE CHD              ON UNIT   1014 AT TIME STEP     11, STRESS PERIOD      1

 HEAD WILL BE SAVED ON UNIT 1015 AT END OF TIME STEP   11, STRESS PERIOD    1

end timestep


start timestep kper="1" kstp="12" mode="normal"

 UBDSV1 SAVING           STO-SS ON UNIT   1014 AT TIME STEP     12, STRESS PERIOD      1
 UBDSV1 SAVING     FLOW-JA-FACE ON UNIT   1014 AT TIME STEP     12, STRESS PERIOD      1
 UBDSV06 SAVING              WEL IN MODEL GWF_WELL_00      PACKAGE GWF_WELL_00     CONNECTED TO MODEL GWF_WELL_00      PACKAGE WEL              ON UNIT   1014 AT TIME STEP     12, STRESS PERIOD      1
 UBDSV06 SAVING              CHD IN MODEL GWF_WELL_00      PACKAGE GWF_WELL_00     CONNECTED TO MODEL GWF_WELL_00      PACKAGE CHD              ON UNIT   1014 AT TIME STEP     12, STRESS PERIOD      1

 HEAD WILL BE SAVED ON UNIT 1015 AT END OF TIME STEP   12, STRESS PERIOD    1

end timestep


start timestep kper="1" kstp="13" mode="normal"

 UBDSV1 SAVING           STO-SS ON UNIT   1014 AT TIME STEP     13, STRESS PERIOD      1
 UBDSV1 SAVING     FLOW-JA-FACE ON UNIT   1014 AT TIME STEP     13, STRESS PERIOD      1
 UBDSV06 SAVING              WEL IN MODEL GWF_WELL_00      PACKAGE GWF_WELL_00     CONNECTED TO MODEL GWF_WELL_00      PACKAGE WEL              ON UNIT   1014 AT TIME STEP     13, STRESS PERIOD      1
 UBDSV06 SAVING              CHD IN MODEL GWF_WELL_00      PACKAGE GWF_WELL_00     CONNECTED TO MODEL GWF_WELL_00      PACKAGE CHD              ON UNIT   1014 AT TIME STEP     13, STRESS PERIOD      1

 HEAD WILL BE SAVED ON UNIT 1015 AT END OF TIME STEP   13, STRESS PERIOD    1

end timestep


start timestep kper="1" kstp="14" mode="normal"

 UBDSV1 SAVING           STO-SS ON UNIT   1014 AT TIME STEP     14, STRESS PERIOD      1
 UBDSV1 SAVING     FLOW-JA-FACE ON UNIT   1014 AT TIME STEP     14, STRESS PERIOD      1
 UBDSV06 SAVING              WEL IN MODEL GWF_WELL_00      PACKAGE GWF_WELL_00     CONNECTED TO MODEL GWF_WELL_00      PACKAGE WEL              ON UNIT   1014 AT TIME STEP     14, STRESS PERIOD      1
 UBDSV06 SAVING              CHD IN MODEL GWF_WELL_00      PACKAGE GWF_WELL_00     CONNECTED TO MODEL GWF_WELL_00      PACKAGE CHD              ON UNIT   1014 AT TIME STEP     14, STRESS PERIOD      1

 HEAD WILL BE SAVED ON UNIT 1015 AT END OF TIME STEP   14, STRESS PERIOD    1

end timestep


start timestep kper="1" kstp="15" mode="normal"

 UBDSV1 SAVING           STO-SS ON UNIT   1014 AT TIME STEP     15, STRESS PERIOD      1
 UBDSV1 SAVING     FLOW-JA-FACE ON UNIT   1014 AT TIME STEP     15, STRESS PERIOD      1
 UBDSV06 SAVING              WEL IN MODEL GWF_WELL_00      PACKAGE GWF_WELL_00     CONNECTED TO MODEL GWF_WELL_00      PACKAGE WEL              ON UNIT   1014 AT TIME STEP     15, STRESS PERIOD      1
 UBDSV06 SAVING              CHD IN MODEL GWF_WELL_00      PACKAGE GWF_WELL_00     CONNECTED TO MODEL GWF_WELL_00      PACKAGE CHD              ON UNIT   1014 AT TIME STEP     15, STRESS PERIOD      1

 HEAD WILL BE SAVED ON UNIT 1015 AT END OF TIME STEP   15, STRESS PERIOD    1

end timestep


start timestep kper="1" kstp="16" mode="normal"

 UBDSV1 SAVING           STO-SS ON UNIT   1014 AT TIME STEP     16, STRESS PERIOD      1
 UBDSV1 SAVING     FLOW-JA-FACE ON UNIT   1014 AT TIME STEP     16, STRESS PERIOD      1
 UBDSV06 SAVING              WEL IN MODEL GWF_WELL_00      PACKAGE GWF_WELL_00     CONNECTED TO MODEL GWF_WELL_00      PACKAGE WEL              ON UNIT   1014 AT TIME STEP     16, STRESS PERIOD      1
 UBDSV06 SAVING              CHD IN MODEL GWF_WELL_00      PACKAGE GWF_WELL_00     CONNECTED TO MODEL GWF_WELL_00      PACKAGE CHD              ON UNIT   1014 AT TIME STEP     16, STRESS PERIOD      1

 HEAD WILL BE SAVED ON UNIT 1015 AT END OF TIME STEP   16, STRESS PERIOD    1

end timestep


start timestep kper="1" kstp="17" mode="normal"

 UBDSV1 SAVING           STO-SS ON UNIT   1014 AT TIME STEP     17, STRESS PERIOD      1
 UBDSV1 SAVING     FLOW-JA-FACE ON UNIT   1014 AT TIME STEP     17, STRESS PERIOD      1
 UBDSV06 SAVING              WEL IN MODEL GWF_WELL_00      PACKAGE GWF_WELL_00     CONNECTED TO MODEL GWF_WELL_00      PACKAGE WEL              ON UNIT   1014 AT TIME STEP     17, STRESS PERIOD      1
 UBDSV06 SAVING              CHD IN MODEL GWF_WELL_00      PACKAGE GWF_WELL_00     CONNECTED TO MODEL GWF_WELL_00      PACKAGE CHD              ON UNIT   1014 AT TIME STEP     17, STRESS PERIOD      1

 HEAD WILL BE SAVED ON UNIT 1015 AT END OF TIME STEP   17, STRESS PERIOD    1

end timestep


start timestep kper="1" kstp="18" mode="normal"

 UBDSV1 SAVING           STO-SS ON UNIT   1014 AT TIME STEP     18, STRESS PERIOD      1
 UBDSV1 SAVING     FLOW-JA-FACE ON UNIT   1014 AT TIME STEP     18, STRESS PERIOD      1
 UBDSV06 SAVING              WEL IN MODEL GWF_WELL_00      PACKAGE GWF_WELL_00     CONNECTED TO MODEL GWF_WELL_00      PACKAGE WEL              ON UNIT   1014 AT TIME STEP     18, STRESS PERIOD      1
 UBDSV06 SAVING              CHD IN MODEL GWF_WELL_00      PACKAGE GWF_WELL_00     CONNECTED TO MODEL GWF_WELL_00      PACKAGE CHD              ON UNIT   1014 AT TIME STEP     18, STRESS PERIOD      1

 HEAD WILL BE SAVED ON UNIT 1015 AT END OF TIME STEP   18, STRESS PERIOD    1

end timestep


start timestep kper="1" kstp="19" mode="normal"

 UBDSV1 SAVING           STO-SS ON UNIT   1014 AT TIME STEP     19, STRESS PERIOD      1
 UBDSV1 SAVING     FLOW-JA-FACE ON UNIT   1014 AT TIME STEP     19, STRESS PERIOD      1
 UBDSV06 SAVING              WEL IN MODEL GWF_WELL_00      PACKAGE GWF_WELL_00     CONNECTED TO MODEL GWF_WELL_00      PACKAGE WEL              ON UNIT   1014 AT TIME STEP     19, STRESS PERIOD      1
 UBDSV06 SAVING              CHD IN MODEL GWF_WELL_00      PACKAGE GWF_WELL_00     CONNECTED TO MODEL GWF_WELL_00      PACKAGE CHD              ON UNIT   1014 AT TIME STEP     19, STRESS PERIOD      1

 WEL PACKAGE (WEL) FLOW RATES   PERIOD      1   STEP       19
 ----------------------------------------------------------------------------------------
   NUMBER   CELLID                    RATE       NAME                                    
 ----------------------------------------------------------------------------------------
     1      (1,8,8)              -600.00000      WELL_00                                 
 ----------------------------------------------------------------------------------------



1
  HEAD IN LAYER   1 AT END OF TIME STEP  19 IN STRESS PERIOD    1
  ---------------------------------------------------------------------------

            1           2           3           4           5           6           7           8           9          10
           11          12          13          14          15
 ........................................................................................................................
   1    0.000       0.000       0.000       0.000       0.000       0.000       0.000       0.000       0.000       0.000    
        0.000       0.000       0.000       0.000       0.000    
   2  -0.3595     -0.3655     -0.3770     -0.3930     -0.4117     -0.4299     -0.4436     -0.4489     -0.4436     -0.4299    
      -0.4116     -0.3930     -0.3770     -0.3654     -0.3595    
   3  -0.7143     -0.7267     -0.7508     -0.7849     -0.8254     -0.8661     -0.8978     -0.9102     -0.8978     -0.8661    
      -0.8254     -0.7849     -0.7508     -0.7267     -0.7143    
   4   -1.058      -1.078      -1.116      -1.172      -1.241      -1.313      -1.373      -1.399      -1.373      -1.313    
       -1.241      -1.172      -1.116      -1.077      -1.058    
   5   -1.383      -1.410      -1.465      -1.548      -1.654      -1.775      -1.886      -1.941      -1.886      -1.775    
       -1.654      -1.548      -1.465      -1.410      -1.383    
   6   -1.682      -1.717      -1.789      -1.900      -2.055      -2.249      -2.459      -2.595      -2.459      -2.249    
       -2.055      -1.900      -1.789      -1.717      -1.682    
   7   -1.946      -1.987      -2.073      -2.212      -2.417      -2.711      -3.111      -3.527      -3.111      -2.711    
       -2.417      -2.212      -2.073      -1.987      -1.946    
   8   -2.170      -2.214      -2.306      -2.458      -2.693      -3.069      -3.751      -5.315      -3.751      -3.069    
       -2.693      -2.458      -2.306      -2.214      -2.170    
   9   -2.351      -2.393      -2.480      -2.621      -2.829      -3.125      -3.528      -3.946      -3.528      -3.125    
       -2.829      -2.621      -2.480      -2.392      -2.350    
  10   -2.489      -2.526      -2.601      -2.718      -2.877      -3.077      -3.291      -3.428      -3.290      -3.076    
       -2.877      -2.717      -2.601      -2.526      -2.489    
  11   -2.591      -2.621      -2.682      -2.771      -2.886      -3.014      -3.130      -3.187      -3.130      -3.014    
       -2.886      -2.771      -2.682      -2.621      -2.591    
  12   -2.663      -2.687      -2.733      -2.800      -2.880      -2.963      -3.031      -3.059      -3.031      -2.963    
       -2.880      -2.800      -2.733      -2.687      -2.663    
  13   -2.711      -2.729      -2.765      -2.815      -2.873      -2.928      -2.971      -2.987      -2.971      -2.928    
       -2.873      -2.815      -2.765      -2.729      -2.710    
  14   -2.739      -2.755      -2.784      -2.823      -2.866      -2.907      -2.937      -2.948      -2.937      -2.907    
       -2.866      -2.823      -2.784      -2.755      -2.739    
  15   -2.753      -2.767      -2.792      -2.826      -2.863      -2.897      -2.921      -2.930      -2.921      -2.897    
       -2.863      -2.826      -2.792      -2.767      -2.753    

 HEAD WILL BE SAVED ON UNIT 1015 AT END OF TIME STEP   19, STRESS PERIOD    1


  VOLUME BUDGET FOR ENTIRE MODEL AT END OF TIME STEP   19, STRESS PERIOD   1
  ---------------------------------------------------------------------------------------------------

     CUMULATIVE VOLUME      L**3       RATES FOR THIS TIME STEP      L**3/T          PACKAGE NAME    
     ------------------                 ------------------------                     ----------------

           IN:                                      IN:
           ---                                      ---
              STO-SS =       93551.5132                STO-SS =       3.3451E-03     STORAGE                          
                 WEL =           0.0000                   WEL =           0.0000     WEL                              
                 CHD =     2095732.1743                   CHD =         599.6860     CHD                              

            TOTAL IN =     2189283.6876              TOTAL IN =         599.6893

          OUT:                                     OUT:
          ----                                     ----
              STO-SS =           0.7622                STO-SS =       6.2622E-04     STORAGE                          
                 WEL =     2190000.0000                   WEL =         600.0000     WEL                              
                 CHD =           0.0000                   CHD =           0.0000     CHD                              

           TOTAL OUT =     2190000.7622             TOTAL OUT =         600.0006

            IN - OUT =        -717.0747              IN - OUT =          -0.3113

 PERCENT DISCREPANCY =          -0.03     PERCENT DISCREPANCY =          -0.05




         TIME SUMMARY AT END OF TIME STEP   19 IN STRESS PERIOD    1
                    SECONDS     MINUTES      HOURS       DAYS        YEARS
                    -----------------------------------------------------------
   TIME STEP LENGTH 1.05167E+08 1.75279E+06  29213.      1217.2      3.3326    
 STRESS PERIOD TIME 3.15360E+08 5.25600E+06  87600.      3650.0      9.9932    
         TOTAL TIME 3.15360E+08 5.25600E+06  87600.      3650.0      9.9932    


end timestep

